/*--------------------------------*- C++ -*----------------------------------*\
| =========                 |                                                 |
| \\      /  F ield         | OpenFOAM: The Open Source CFD Toolbox           |
|  \\    /   O peration     | Version:  4.1                                   |
|   \\  /    A nd           | Web:      www.OpenFOAM.org                      |
|    \\/     M anipulation  |                                                 |
\*---------------------------------------------------------------------------*/
FoamFile
{
    version     2.0;
    format      ascii;
    class       extendedFeatureEdgeMesh;
    location    "constant/extendedFeatureEdgeMesh";
    object      Ypipe.extendedFeatureEdgeMesh;
}
// * * * * * * * * * * * * * * * * * * * * * * * * * * * * * * * * * * * * * //

// points

312
(
(-3.88578e-18 -1.22465e-18 -0.005)
(0.05 -0.01 0.0025)
(0.05 0.05 -0.005)
(-3.88578e-18 0.00152403 0.00476207)
(-3.88578e-18 0.00193894 0.00460874)
(-3.88578e-18 0.00109719 0.00487813)
(-3.88578e-18 0.000661769 0.00495601)
(-3.88578e-18 0.000221167 0.00499511)
(-3.88578e-18 -0.000221167 0.00499511)
(-3.88578e-18 -0.000661769 0.00495601)
(-3.88578e-18 -0.00109719 0.00487813)
(-3.88578e-18 -0.00152403 0.00476207)
(-3.88578e-18 -0.00193894 0.00460874)
(-3.88578e-18 -0.00233867 0.00441935)
(-3.88578e-18 -0.0027201 0.00419536)
(-3.88578e-18 -0.00341628 0.0036509)
(-3.88578e-18 -0.00308024 0.00393854)
(-3.88578e-18 -0.00400572 0.00299236)
(-3.88578e-18 -0.00372558 0.00333468)
(-3.88578e-18 -0.00425451 0.00262663)
(-3.88578e-18 -0.00447 0.00224033)
(-3.88578e-18 -0.00465051 0.00183651)
(-3.88578e-18 -0.00479462 0.00141831)
(-3.88578e-18 -0.00490121 0.00098901)
(-3.88578e-18 -0.00496944 0.00055197)
(-3.88578e-18 -0.00499878 0.00011061)
(-3.88578e-18 -0.00498899 -0.000331615)
(-3.88578e-18 -0.00494016 -0.000771245)
(-3.88578e-18 -0.00485267 -0.00120484)
(-3.88578e-18 -0.00472719 -0.001629)
(-3.88578e-18 -0.00456472 -0.00204042)
(-3.88578e-18 -0.00436653 -0.00243586)
(-3.88578e-18 -0.00413416 -0.00281225)
(-3.88578e-18 -0.00386943 -0.00316662)
(-3.88578e-18 -0.00357443 -0.00349621)
(-3.88578e-18 -0.00325144 -0.00379844)
(-3.88578e-18 -0.00290301 -0.00407093)
(-3.88578e-18 -0.00253186 -0.00431157)
(-3.88578e-18 -0.0021409 -0.00451847)
(-3.88578e-18 -0.00173318 -0.00469)
(-3.88578e-18 -0.00131189 -0.00482482)
(-3.88578e-18 -0.000880343 -0.00492189)
(-3.88578e-18 -0.0004419 -0.00498043)
(-3.88578e-18 0.0004419 -0.00498043)
(-3.88578e-18 0.000880343 -0.00492189)
(-3.88578e-18 0.00131189 -0.00482482)
(-3.88578e-18 0.00173318 -0.00469)
(-3.88578e-18 0.0021409 -0.00451847)
(-3.88578e-18 0.00253186 -0.00431157)
(-3.88578e-18 0.00290301 -0.00407093)
(-3.88578e-18 0.00325144 -0.00379844)
(-3.88578e-18 0.00357443 -0.00349621)
(-3.88578e-18 0.00386943 -0.00316662)
(-3.88578e-18 0.00413416 -0.00281225)
(-3.88578e-18 0.00436653 -0.00243586)
(-3.88578e-18 0.00456472 -0.00204042)
(-3.88578e-18 0.00472719 -0.001629)
(-3.88578e-18 0.00485267 -0.00120484)
(-3.88578e-18 0.00494016 -0.000771245)
(-3.88578e-18 0.00498899 -0.000331615)
(-3.88578e-18 0.00499878 0.00011061)
(-3.88578e-18 0.00496944 0.00055197)
(-3.88578e-18 0.00490121 0.00098901)
(-3.88578e-18 0.00479462 0.00141831)
(-3.88578e-18 0.00465051 0.00183651)
(-3.88578e-18 0.00447 0.00224033)
(-3.88578e-18 0.00425451 0.00262663)
(-3.88578e-18 0.00400572 0.00299236)
(-3.88578e-18 0.00372558 0.00333468)
(-3.88578e-18 0.00341628 0.0036509)
(-3.88578e-18 0.00308024 0.00393854)
(-3.88578e-18 0.0027201 0.00419536)
(-3.88578e-18 0.00233867 0.00441935)
(0.050221 -0.01 0.00249022)
(0.0504402 -0.01 0.00246094)
(0.050656 -0.01 0.00241241)
(0.0508666 -0.01 0.002345)
(0.0510705 -0.01 0.00225923)
(0.0512659 -0.01 0.00215579)
(0.0514515 -0.01 0.00203547)
(0.0517872 -0.01 0.0017481)
(0.0516257 -0.01 0.00189922)
(0.0520671 -0.01 0.00140612)
(0.0519347 -0.01 0.00158331)
(0.0521833 -0.01 0.00121793)
(0.0522824 -0.01 0.00102021)
(0.0523636 -0.01 0.000814501)
(0.0524263 -0.01 0.000602419)
(0.0524701 -0.01 0.000385622)
(0.0524945 -0.01 0.000165807)
(0.0524994 -0.01 -5.53052e-05)
(0.0524847 -0.01 -0.000275985)
(0.0524506 -0.01 -0.000494505)
(0.0523973 -0.01 -0.000709154)
(0.0523252 -0.01 -0.000918254)
(0.052235 -0.01 -0.00112017)
(0.0521273 -0.01 -0.00131331)
(0.0520029 -0.01 -0.00149618)
(0.0518628 -0.01 -0.00166734)
(0.0517081 -0.01 -0.00182545)
(0.0515401 -0.01 -0.00196927)
(0.05136 -0.01 -0.00209768)
(0.0511693 -0.01 -0.00220967)
(0.0509695 -0.01 -0.00230437)
(0.050762 -0.01 -0.00238104)
(0.0505486 -0.01 -0.00243907)
(0.0503309 -0.01 -0.00247801)
(0.0501106 -0.01 -0.00249755)
(0.0498894 -0.01 -0.00249755)
(0.0496691 -0.01 -0.00247801)
(0.0494514 -0.01 -0.00243907)
(0.049238 -0.01 -0.00238104)
(0.0490305 -0.01 -0.00230437)
(0.0488307 -0.01 -0.00220967)
(0.04864 -0.01 -0.00209768)
(0.0484599 -0.01 -0.00196927)
(0.0482919 -0.01 -0.00182545)
(0.0481372 -0.01 -0.00166734)
(0.0479971 -0.01 -0.00149618)
(0.0478727 -0.01 -0.00131331)
(0.047765 -0.01 -0.00112017)
(0.0476748 -0.01 -0.000918254)
(0.0476027 -0.01 -0.000709154)
(0.0475494 -0.01 -0.000494505)
(0.0475153 -0.01 -0.000275985)
(0.0475006 -0.01 -5.53052e-05)
(0.0475055 -0.01 0.000165807)
(0.0475299 -0.01 0.000385622)
(0.0475737 -0.01 0.000602419)
(0.0476364 -0.01 0.000814501)
(0.0477176 -0.01 0.00102021)
(0.0478167 -0.01 0.00121793)
(0.0479329 -0.01 0.00140612)
(0.0480653 -0.01 0.00158331)
(0.0482128 -0.01 0.0017481)
(0.0483743 -0.01 0.00189922)
(0.0485485 -0.01 0.00203547)
(0.0487341 -0.01 0.00215579)
(0.0489295 -0.01 0.00225923)
(0.0491334 -0.01 0.002345)
(0.049344 -0.01 0.00241241)
(0.0495598 -0.01 0.00246094)
(0.049779 -0.01 0.00249022)
(0.0464256 0.05 -0.00349621)
(0.0461306 0.05 -0.00316662)
(0.0458658 0.05 -0.00281225)
(0.0456335 0.05 -0.00243586)
(0.0454353 0.05 -0.00204042)
(0.0452728 0.05 -0.001629)
(0.0451473 0.05 -0.00120484)
(0.0450598 0.05 -0.000771245)
(0.045011 0.05 -0.000331615)
(0.0450012 0.05 0.00011061)
(0.0450306 0.05 0.00055197)
(0.0450988 0.05 0.00098901)
(0.0452054 0.05 0.00141831)
(0.0453495 0.05 0.00183651)
(0.04553 0.05 0.00224033)
(0.0457455 0.05 0.00262663)
(0.0459943 0.05 0.00299236)
(0.0462744 0.05 0.00333468)
(0.0465837 0.05 0.0036509)
(0.0469198 0.05 0.00393854)
(0.0472799 0.05 0.00419536)
(0.0476613 0.05 0.00441935)
(0.0480611 0.05 0.00460874)
(0.048476 0.05 0.00476207)
(0.0489028 0.05 0.00487813)
(0.0493382 0.05 0.00495601)
(0.0497788 0.05 0.00499511)
(0.0502212 0.05 0.00499511)
(0.0506618 0.05 0.00495601)
(0.0510972 0.05 0.00487813)
(0.051524 0.05 0.00476207)
(0.0519389 0.05 0.00460874)
(0.0523387 0.05 0.00441935)
(0.0527201 0.05 0.00419536)
(0.0530802 0.05 0.00393854)
(0.0534163 0.05 0.0036509)
(0.0537256 0.05 0.00333468)
(0.0540057 0.05 0.00299236)
(0.0542545 0.05 0.00262663)
(0.05447 0.05 0.00224033)
(0.0546505 0.05 0.00183651)
(0.0547946 0.05 0.00141831)
(0.0549012 0.05 0.00098901)
(0.0549694 0.05 0.00055197)
(0.0549988 0.05 0.00011061)
(0.054989 0.05 -0.000331615)
(0.0549402 0.05 -0.000771245)
(0.0548527 0.05 -0.00120484)
(0.0547272 0.05 -0.001629)
(0.0545647 0.05 -0.00204042)
(0.0543665 0.05 -0.00243586)
(0.0541342 0.05 -0.00281225)
(0.0538694 0.05 -0.00316662)
(0.0535744 0.05 -0.00349621)
(0.0532514 0.05 -0.00379844)
(0.052903 0.05 -0.00407093)
(0.0525319 0.05 -0.00431157)
(0.0521409 0.05 -0.00451847)
(0.0517332 0.05 -0.00469)
(0.0513119 0.05 -0.00482482)
(0.0508803 0.05 -0.00492189)
(0.0504419 0.05 -0.00498043)
(0.0495581 0.05 -0.00498043)
(0.0491197 0.05 -0.00492189)
(0.0486881 0.05 -0.00482482)
(0.0482668 0.05 -0.00469)
(0.0478591 0.05 -0.00451847)
(0.0474681 0.05 -0.00431157)
(0.047097 0.05 -0.00407093)
(0.0467486 0.05 -0.00379844)
(-3.88578e-18 -0.00413844 0.00280594)
(-3.88578e-18 -0.00464488 0.00185069)
(-3.88578e-18 -0.00493413 0.00080891)
(-3.88578e-18 0.00107485 -0.0048831)
(-3.88578e-18 -0.00499267 -0.000270694)
(-3.88578e-18 0.00209945 -0.00453788)
(-3.88578e-18 -0.00481775 -0.00133764)
(-3.88578e-18 0.00302587 -0.00398046)
(-3.88578e-18 -0.00441756 -0.00234204)
(-3.88578e-18 0.00381081 -0.00323693)
(-3.88578e-18 -0.00381081 -0.00323693)
(-3.88578e-18 0.00441756 -0.00234204)
(-3.88578e-18 -0.00302587 -0.00398046)
(-3.88578e-18 0.00481775 -0.00133764)
(-3.88578e-18 -0.00209945 -0.00453788)
(-3.88578e-18 0.00499267 -0.000270694)
(-3.88578e-18 -0.00107485 -0.0048831)
(-3.88578e-18 0.00493413 0.00080891)
(-3.88578e-18 0.00464488 0.00185069)
(-3.88578e-18 0.00413844 0.00280594)
(-3.88578e-18 0.0034385 0.00362998)
(-3.88578e-18 0.00257777 0.00428429)
(-3.88578e-18 0.00159651 0.00473827)
(-3.88578e-18 0.000540595 0.00497069)
(-3.88578e-18 -0.000540595 0.00497069)
(-3.88578e-18 -0.00159651 0.00473827)
(-3.88578e-18 -0.00257777 0.00428429)
(-3.88578e-18 -0.0034385 0.00362998)
(0.0476625 -0.01 -0.000886512)
(0.0475182 -0.01 -0.000301342)
(0.0505983 -0.01 0.00242736)
(0.0475182 -0.01 0.000301342)
(0.0511618 -0.01 0.00221364)
(0.0476625 -0.01 0.000886512)
(0.0516578 -0.01 0.00187128)
(0.0479425 -0.01 0.00142016)
(0.0520575 -0.01 0.00142016)
(0.0483422 -0.01 0.00187128)
(0.0488382 -0.01 0.00221364)
(0.0523375 -0.01 0.000886512)
(0.0494017 -0.01 0.00242736)
(0.0524818 -0.01 0.000301342)
(0.0524818 -0.01 -0.000301342)
(0.0523375 -0.01 -0.000886512)
(0.0520575 -0.01 -0.00142016)
(0.0516578 -0.01 -0.00187128)
(0.0511618 -0.01 -0.00221364)
(0.0505983 -0.01 -0.00242736)
(0.05 -0.01 -0.0025)
(0.0494017 -0.01 -0.00242736)
(0.0488382 -0.01 -0.00221364)
(0.0483422 -0.01 -0.00187128)
(0.0479425 -0.01 -0.00142016)
(0.0546449 0.05 0.00185069)
(0.0541384 0.05 0.00280594)
(0.0549341 0.05 0.00080891)
(0.0549927 0.05 -0.000270694)
(0.0489252 0.05 -0.0048831)
(0.0548177 0.05 -0.00133764)
(0.0479005 0.05 -0.00453788)
(0.0544176 0.05 -0.00234204)
(0.0469741 0.05 -0.00398046)
(0.0538108 0.05 -0.00323693)
(0.0461892 0.05 -0.00323693)
(0.0530259 0.05 -0.00398046)
(0.0455824 0.05 -0.00234204)
(0.0520995 0.05 -0.00453788)
(0.0451823 0.05 -0.00133764)
(0.0510748 0.05 -0.0048831)
(0.0450073 0.05 -0.000270694)
(0.0450659 0.05 0.00080891)
(0.0453551 0.05 0.00185069)
(0.0458616 0.05 0.00280594)
(0.0465615 0.05 0.00362998)
(0.0474222 0.05 0.00428429)
(0.0484035 0.05 0.00473827)
(0.0494594 0.05 0.00497069)
(0.0505406 0.05 0.00497069)
(0.0515965 0.05 0.00473827)
(0.0525778 0.05 0.00428429)
(0.0534385 0.05 0.00362998)
(0.047548 0.00222702 -0.000487391)
(0.0475056 0.00215588 -0.000167634)
(0.0475031 0.00215156 0.000123504)
(0.0478149 0.00267474 -0.00121458)
(0.0476419 0.00238476 -0.000830314)
(0.0480999 0.00315065 -0.0016247)
(0.0485922 0.00396291 -0.00206597)
(0.0492742 0.00505339 -0.00239234)
(0.0475296 0.00219622 0.000383784)
(0.0475829 0.00228576 0.00063862)
(0.0476618 0.00241816 0.000884805)
(0.0478041 0.0026567 0.001195)
(0.0480103 0.00300143 0.00151369)
(0.0500096 0.00615904 -0.00249998)
(0.0483525 0.00356931 0.00188037)
(0.0488171 0.00432781 0.00220244)
(0.0493785 0.00521517 0.00242151)
(0.05 0.00614522 0.0025)
)

// edges

314
(
(294 295)
(295 296)
(297 298)
(298 294)
(299 297)
(300 299)
(301 300)
(296 302)
(302 303)
(303 304)
(304 305)
(305 306)
(307 301)
(306 308)
(308 309)
(309 310)
(310 311)
(3 4)
(5 3)
(6 5)
(7 6)
(8 7)
(9 8)
(10 9)
(11 10)
(12 11)
(13 12)
(14 13)
(15 16)
(16 14)
(17 18)
(18 15)
(19 17)
(20 19)
(21 20)
(22 21)
(23 22)
(24 23)
(25 24)
(26 25)
(27 26)
(28 27)
(29 28)
(30 29)
(31 30)
(32 31)
(33 32)
(34 33)
(35 34)
(36 35)
(37 36)
(38 37)
(39 38)
(40 39)
(41 40)
(42 41)
(0 42)
(43 0)
(44 43)
(45 44)
(46 45)
(47 46)
(48 47)
(49 48)
(50 49)
(51 50)
(52 51)
(53 52)
(54 53)
(55 54)
(56 55)
(57 56)
(58 57)
(59 58)
(60 59)
(61 60)
(62 61)
(63 62)
(64 63)
(65 64)
(66 65)
(67 66)
(68 67)
(69 68)
(70 69)
(71 70)
(72 71)
(4 72)
(73 1)
(74 73)
(75 74)
(76 75)
(77 76)
(78 77)
(79 78)
(80 81)
(81 79)
(82 83)
(83 80)
(84 82)
(85 84)
(86 85)
(87 86)
(88 87)
(89 88)
(90 89)
(91 90)
(92 91)
(93 92)
(94 93)
(95 94)
(96 95)
(97 96)
(98 97)
(99 98)
(100 99)
(101 100)
(102 101)
(103 102)
(104 103)
(105 104)
(106 105)
(107 106)
(108 107)
(109 108)
(110 109)
(111 110)
(112 111)
(113 112)
(114 113)
(115 114)
(116 115)
(117 116)
(118 117)
(119 118)
(120 119)
(121 120)
(122 121)
(123 122)
(124 123)
(125 124)
(126 125)
(127 126)
(128 127)
(129 128)
(130 129)
(131 130)
(132 131)
(133 132)
(134 133)
(135 134)
(136 135)
(137 136)
(138 137)
(139 138)
(140 139)
(141 140)
(142 141)
(1 142)
(143 144)
(144 145)
(145 146)
(146 147)
(147 148)
(148 149)
(149 150)
(150 151)
(151 152)
(152 153)
(153 154)
(154 155)
(155 156)
(156 157)
(157 158)
(158 159)
(159 160)
(160 161)
(161 162)
(162 163)
(163 164)
(164 165)
(165 166)
(166 167)
(167 168)
(168 169)
(169 170)
(170 171)
(171 172)
(172 173)
(173 174)
(174 175)
(175 176)
(176 177)
(177 178)
(178 179)
(179 180)
(180 181)
(181 182)
(182 183)
(183 184)
(184 185)
(185 186)
(186 187)
(187 188)
(188 189)
(189 190)
(190 191)
(191 192)
(192 193)
(193 194)
(194 195)
(195 196)
(196 197)
(197 198)
(198 199)
(199 200)
(200 201)
(201 202)
(202 203)
(203 204)
(204 2)
(2 205)
(205 206)
(206 207)
(207 208)
(208 209)
(209 210)
(210 211)
(211 212)
(212 143)
(213 214)
(214 215)
(0 216)
(215 217)
(216 218)
(217 219)
(218 220)
(219 221)
(220 222)
(221 223)
(222 224)
(223 225)
(224 226)
(225 227)
(226 228)
(227 229)
(228 230)
(229 0)
(230 231)
(231 232)
(232 233)
(233 234)
(234 235)
(235 236)
(236 237)
(237 238)
(238 239)
(239 240)
(240 213)
(241 242)
(1 243)
(242 244)
(243 245)
(244 246)
(245 247)
(246 248)
(247 249)
(248 250)
(250 251)
(249 252)
(251 253)
(252 254)
(253 1)
(254 255)
(255 256)
(256 257)
(257 258)
(258 259)
(259 260)
(260 261)
(261 262)
(262 263)
(263 264)
(264 265)
(265 241)
(266 267)
(268 266)
(269 268)
(270 2)
(271 269)
(272 270)
(273 271)
(274 272)
(275 273)
(276 274)
(277 275)
(278 276)
(279 277)
(280 278)
(281 279)
(2 281)
(282 280)
(283 282)
(284 283)
(285 284)
(286 285)
(287 286)
(288 287)
(289 288)
(290 289)
(291 290)
(292 291)
(293 292)
(267 293)
)

// concaveStart mixedStart nonFeatureStart
0 0 3
// internalStart flatStart openStart multipleStart
0 17 17 314
// normals

325
(
(-1 0 0)
(-1 0 0)
(-1 0 0)
(-1 0 0)
(-1 0 0)
(-1 0 0)
(-1 0 0)
(-1 0 0)
(-1 0 0)
(-1 0 0)
(-1 0 0)
(-1 0 0)
(-1 0 0)
(-1 0 0)
(-1 0 0)
(-1 0 0)
(-1 0 0)
(-1 0 0)
(-1 0 0)
(-1 0 0)
(-1 0 0)
(-1 0 0)
(-1 0 0)
(-1 0 0)
(-1 0 0)
(-1 0 0)
(-1 0 0)
(-1 0 0)
(-1 0 0)
(-1 0 -0)
(-1 0 0)
(-1 0 0)
(-1 0 0)
(-1 0 0)
(-1 0 0)
(-1 0 0)
(-1 0 0)
(-1 0 0)
(-1 0 0)
(-1 0 0)
(-1 0 0)
(-1 0 0)
(-1 0 0)
(-1 0 0)
(-1 0 0)
(-1 0 0)
(-1 0 0)
(-1 0 0)
(-1 0 0)
(-1 0 0)
(-1 0 0)
(-1 0 0)
(-1 0 0)
(-1 0 0)
(-1 0 0)
(-1 0 0)
(-1 0 0)
(-1 0 0)
(-1 0 0)
(-1 0 0)
(-1 0 0)
(-1 0 0)
(-1 0 0)
(-1 0 0)
(-1 0 0)
(-1 0 0)
(-1 0 0)
(-1 0 0)
(-1 0 0)
(0 -1 0)
(0 -1 0)
(0 -1 0)
(0 -1 0)
(0 -1 0)
(0 -1 0)
(0 -1 0)
(0 -1 0)
(0 -1 0)
(0 -1 0)
(0 -1 0)
(0 -1 0)
(0 -1 0)
(0 -1 0)
(0 -1 0)
(0 -1 0)
(0 -1 0)
(0 -1 0)
(0 -1 0)
(0 -1 0)
(0 -1 0)
(0 -1 0)
(0 -1 0)
(0 -1 0)
(0 -1 -0)
(0 -1 0)
(0 -1 0)
(0 -1 0)
(0 -1 0)
(0 -1 0)
(0 -1 0)
(0 -1 0)
(0 -1 0)
(0 -1 0)
(0 -1 0)
(0 -1 0)
(0 -1 0)
(0 -1 0)
(0 -1 0)
(0 -1 0)
(0 -1 0)
(0 -1 0)
(0 -1 0)
(0 -1 0)
(0 -1 0)
(0 -1 0)
(0 -1 0)
(0 -1 0)
(0 -1 0)
(0 -1 0)
(0 -1 0)
(0 -1 0)
(0 -1 0)
(0 -1 0)
(0 -1 0)
(0 -1 0)
(0 -1 0)
(0 -1 0)
(0 -1 0)
(-0 -1 0)
(0 -1 0)
(0 -1 0)
(0 -1 0)
(0 -1 0)
(0 -1 0)
(0 -1 0)
(0 -1 0)
(0 -1 0)
(0 -1 0)
(0 1 0)
(0 1 0)
(0 1 0)
(0 1 0)
(0 1 0)
(0 1 0)
(0 1 0)
(0 1 0)
(0 1 0)
(0 1 0)
(0 1 0)
(0 1 0)
(0 1 0)
(0 1 0)
(0 1 0)
(0 1 0)
(0 1 0)
(0 1 0)
(0 1 0)
(0 1 0)
(0 1 0)
(0 1 0)
(0 1 0)
(0 1 0)
(0 1 0)
(0 1 0)
(0 1 0)
(0 1 0)
(0 1 0)
(0 1 0)
(0 1 0)
(0 1 0)
(0 1 0)
(0 1 0)
(0 1 0)
(0 1 0)
(0 1 0)
(0 1 0)
(0 1 0)
(0 1 0)
(0 1 0)
(0 1 0)
(0 1 0)
(0 1 0)
(0 1 0)
(0 1 0)
(0 1 0)
(0 1 0)
(0 1 0)
(0 1 0)
(0 1 0)
(0 1 0)
(0 1 0)
(0 1 0)
(0 1 0)
(0 1 0)
(0 1 0)
(0 1 0)
(0 1 0)
(0 1 0)
(0 1 0)
(0 1 0)
(0 1 0)
(0 1 0)
(0 1 0)
(0 1 0)
(0 1 0)
(0 1 0)
(0 1 0)
(0 -0.883513 0.468407)
(0 -0.96355 0.267529)
(0 0.108122 -0.994138)
(0 -0.998533 0.0541442)
(0 0.319295 -0.947655)
(-0 -0.986826 -0.161785)
(0 0.515562 -0.856853)
(-0 -0.928977 -0.370138)
(0 0.687697 -0.725997)
(-0 -0.827689 -0.561187)
(0 0.827689 -0.561187)
(-0 -0.687697 -0.725997)
(0 0.928977 -0.370138)
(-0 -0.515562 -0.856853)
(0 0.986826 -0.161785)
(-0 -0.319295 -0.947655)
(0 0.998533 0.0541442)
(3.4534e-18 -0.108122 -0.994138)
(0 0.96355 0.267529)
(0 0.883513 0.468407)
(0 0.762165 0.647383)
(0 0.605174 0.796093)
(0 0.419889 0.907575)
(0 0.214966 0.976621)
(0 0 1)
(0 -0.214966 0.976621)
(0 -0.419889 0.907575)
(0 -0.605174 0.796093)
(0 -0.762165 0.647383)
(-0.970915 -0.00127686 -0.239421)
(0.120525 0 0.99271)
(-0.999999 -0.00124283 0)
(0.354624 -0.000523381 0.935009)
(-0.970915 -0.00145991 0.239421)
(0.56806 -0.000815772 0.822987)
(-0.88551 -0.00141764 0.464619)
(0.748474 -0.000847568 0.663163)
(-0.748474 -0.000867507 0.663163)
(-0.568063 -0.00012025 0.822985)
(0.88551 -0.000693981 0.464619)
(-0.354622 0.000208645 0.93501)
(0.970915 -0.000949162 0.239421)
(-0.120525 0.000197903 0.99271)
(1 -0.000570811 0)
(0.970915 -0.000955223 -0.239421)
(0.88551 -0.000588085 -0.464619)
(0.748474 -0.000968233 -0.663163)
(0.56806 -0.000775838 -0.822987)
(0.354624 -0.000348577 -0.935009)
(0.120525 -7.03739e-05 -0.99271)
(-0.120525 7.28342e-05 -0.99271)
(-0.354622 -0.000828442 -0.935009)
(-0.568062 -0.00130439 -0.822984)
(-0.748474 -0.00135604 -0.663163)
(-0.88551 -0.00137887 -0.464619)
(0.883489 0 0.468452)
(0.963562 0 0.267485)
(0.99853 0 0.0542017)
(-0.108127 0 -0.994137)
(0.986814 0 -0.161859)
(-0.319268 0 -0.947665)
(0.929005 0 -0.370067)
(-0.515569 0 -0.856848)
(0.827669 0 -0.561217)
(-0.687716 0 -0.72598)
(0.687716 0 -0.72598)
(-0.827667 0 -0.561219)
(0.515569 0 -0.856848)
(-0.929005 0 -0.370067)
(0.319267 0 -0.947665)
(0.108127 0 -0.994137)
(-0.986814 0 -0.161856)
(-0.99853 0 0.0541983)
(-0.963561 0 0.267488)
(-0.883489 0 0.468452)
(-0.762185 0 0.64736)
(-0.605187 0 0.796084)
(-0.419875 0 0.907582)
(-0.214969 0 0.976621)
(0 0 1)
(0.214969 0 0.976621)
(0.419875 0 0.907582)
(0.605188 0 0.796082)
(0.762183 0 0.647362)
(0.685075 -0.725057 -0.0704676)
(-0.991334 0.000417148 -0.131363)
(0.68216 -0.731186 -0.00499248)
(-0.999963 -0.000942125 -0.00859952)
(0.684318 -0.696083 -0.217203)
(-0.911949 0.000344887 -0.410304)
(0.697667 -0.704007 -0.132798)
(-0.964448 -0.000405083 -0.264273)
(0.712335 -0.651505 -0.260997)
(-0.821712 0.000971083 -0.569903)
(0.720942 -0.612776 -0.323647)
(-0.668934 0.00161245 -0.74332)
(0.693584 -0.566832 -0.44457)
(-0.434109 0.00187919 -0.900858)
(0.700402 -0.711936 0.050842)
(-0.994861 0.000245418 0.101255)
(0.697561 -0.709048 0.103242)
(-0.978788 -0.000470034 0.204874)
(0.685866 -0.709521 0.161767)
(-0.952285 -1.17523e-05 0.305211)
(0.695216 -0.68751 0.209773)
(-0.908927 6.05336e-06 0.416956)
(0.675593 -0.67605 0.294161)
(-0.839815 0.000474162 0.542873)
(0.797927 -0.553874 -0.237774)
(-0.146388 0.00106143 -0.989227)
(0.716422 -0.627973 0.303957)
(-0.731168 9.78293e-05 0.682198)
(0.676605 -0.597292 0.430637)
(-0.569501 -0.000196144 0.821991)
(0.754331 -0.561297 0.340487)
(-0.363255 -0.000195688 0.93169)
(0.673927 -0.496518 0.547077)
(-0.125296 0 0.992119)
)

// normal volume types

325
(
0
0
0
0
0
0
0
0
0
0
0
0
0
0
0
0
0
0
0
0
0
0
0
0
0
0
0
0
0
0
0
0
0
0
0
0
0
0
0
0
0
0
0
0
0
0
0
0
0
0
0
0
0
0
0
0
0
0
0
0
0
0
0
0
0
0
0
0
0
0
0
0
0
0
0
0
0
0
0
0
0
0
0
0
0
0
0
0
0
0
0
0
0
0
0
0
0
0
0
0
0
0
0
0
0
0
0
0
0
0
0
0
0
0
0
0
0
0
0
0
0
0
0
0
0
0
0
0
0
0
0
0
0
0
0
0
0
0
0
0
0
0
0
0
0
0
0
0
0
0
0
0
0
0
0
0
0
0
0
0
0
0
0
0
0
0
0
0
0
0
0
0
0
0
0
0
0
0
0
0
0
0
0
0
0
0
0
0
0
0
0
0
0
0
0
0
0
0
0
0
0
0
0
0
0
0
0
0
0
0
0
0
0
0
0
0
0
0
0
0
0
0
0
0
0
0
0
0
0
0
0
0
0
0
0
0
0
0
0
0
0
0
0
0
0
0
0
0
0
0
0
0
0
0
0
0
0
0
0
0
0
0
0
0
0
0
0
0
0
0
0
0
0
0
0
0
0
0
0
0
0
0
0
0
0
0
0
0
0
0
0
0
0
0
0
0
0
0
0
0
0
0
0
0
0
0
0
0
0
0
0
0
0
0
0
0
0
0
0
0
0
0
0
0
0
)

// normalDirections

314
(
2(1 -1)
2(1 -1)
2(1 -1)
2(1 -1)
2(1 -1)
2(1 -1)
2(1 -1)
2(1 -1)
2(1 -1)
2(1 -1)
2(1 -1)
2(1 -1)
2(1 -1)
2(1 -1)
2(1 -1)
2(1 -1)
2(1 -1)
1(1)
1(1)
1(1)
1(1)
1(1)
1(1)
1(1)
1(1)
1(1)
1(1)
1(1)
1(1)
1(1)
1(1)
1(1)
1(1)
1(1)
1(1)
1(1)
1(1)
1(1)
1(1)
1(1)
1(1)
1(1)
1(1)
1(1)
1(1)
1(1)
1(1)
1(1)
1(1)
1(1)
1(1)
1(1)
1(1)
1(1)
1(1)
1(1)
1(1)
1(1)
1(1)
1(1)
1(1)
1(1)
1(1)
1(1)
1(1)
1(1)
1(1)
1(1)
1(1)
1(1)
1(1)
1(1)
1(1)
1(1)
1(1)
1(1)
1(1)
1(1)
1(1)
1(1)
1(1)
1(1)
1(1)
1(1)
1(1)
1(1)
1(1)
1(1)
1(1)
1(1)
1(1)
1(1)
1(1)
1(1)
1(1)
1(1)
1(1)
1(1)
1(1)
1(1)
1(1)
1(1)
1(1)
1(1)
1(1)
1(1)
1(1)
1(1)
1(1)
1(1)
1(1)
1(1)
1(1)
1(1)
1(1)
1(1)
1(1)
1(1)
1(1)
1(1)
1(1)
1(1)
1(1)
1(1)
1(1)
1(1)
1(1)
1(1)
1(1)
1(1)
1(1)
1(1)
1(1)
1(1)
1(1)
1(1)
1(1)
1(1)
1(1)
1(1)
1(1)
1(1)
1(1)
1(1)
1(1)
1(1)
1(1)
1(1)
1(1)
1(1)
1(1)
1(1)
1(1)
1(1)
1(1)
1(1)
1(1)
1(1)
1(1)
1(1)
1(1)
1(1)
1(1)
1(1)
1(1)
1(1)
1(1)
1(1)
1(1)
1(1)
1(1)
1(1)
1(1)
1(1)
1(1)
1(1)
1(1)
1(1)
1(1)
1(1)
1(1)
1(1)
1(1)
1(1)
1(1)
1(1)
1(1)
1(1)
1(1)
1(1)
1(1)
1(1)
1(1)
1(1)
1(1)
1(1)
1(1)
1(1)
1(1)
1(1)
1(1)
1(1)
1(1)
1(1)
1(1)
1(1)
1(1)
1(1)
1(1)
1(1)
1(1)
1(1)
1(1)
1(1)
1(1)
1(1)
1(1)
1(1)
1(1)
1(1)
1(1)
1(1)
1(1)
1(1)
1(1)
1(1)
1(1)
1(1)
1(1)
1(1)
1(1)
1(1)
1(1)
1(1)
1(1)
1(1)
1(1)
1(1)
1(1)
1(1)
1(1)
1(1)
1(1)
1(1)
1(1)
1(1)
1(1)
1(1)
1(1)
1(1)
1(1)
1(1)
1(1)
1(1)
1(1)
1(1)
1(1)
1(1)
1(1)
1(1)
1(1)
1(1)
1(1)
1(1)
1(1)
1(1)
1(1)
1(1)
1(1)
1(1)
1(1)
1(1)
1(1)
1(1)
1(1)
1(1)
1(1)
1(1)
1(1)
1(1)
1(1)
1(1)
1(1)
1(1)
1(1)
1(1)
1(1)
1(1)
1(1)
1(1)
1(1)
1(1)
1(1)
1(1)
1(1)
1(1)
1(1)
1(1)
1(1)
1(1)
1(1)
1(1)
1(1)
1(1)
1(1)
1(1)
1(1)
1(1)
1(1)
1(1)
1(1)
1(1)
1(1)
1(1)
)

// edgeNormals

314
(
2(291 292)
2(293 294)
2(295 296)
2(297 298)
2(299 300)
2(301 302)
2(303 304)
2(305 306)
2(307 308)
2(309 310)
2(311 312)
2(313 314)
2(315 316)
2(317 318)
2(319 320)
2(321 322)
2(323 324)
1(0)
1(1)
1(2)
1(3)
1(4)
1(5)
1(6)
1(7)
1(8)
1(9)
1(10)
1(11)
1(11)
1(12)
1(12)
1(13)
1(14)
1(15)
1(16)
1(17)
1(18)
1(19)
1(20)
1(21)
1(22)
1(23)
1(24)
1(25)
1(26)
1(27)
1(28)
1(29)
1(30)
1(31)
1(32)
1(33)
1(34)
1(35)
1(36)
1(37)
1(38)
1(39)
1(40)
1(41)
1(42)
1(43)
1(44)
1(45)
1(46)
1(47)
1(48)
1(49)
1(50)
1(51)
1(52)
1(53)
1(54)
1(55)
1(56)
1(57)
1(58)
1(59)
1(60)
1(61)
1(62)
1(63)
1(64)
1(65)
1(66)
1(67)
1(68)
1(69)
1(70)
1(71)
1(72)
1(73)
1(74)
1(75)
1(76)
1(76)
1(77)
1(77)
1(78)
1(79)
1(80)
1(81)
1(82)
1(83)
1(84)
1(85)
1(86)
1(87)
1(88)
1(89)
1(90)
1(91)
1(92)
1(93)
1(94)
1(95)
1(96)
1(97)
1(98)
1(99)
1(100)
1(101)
1(102)
1(103)
1(104)
1(105)
1(106)
1(107)
1(108)
1(109)
1(110)
1(111)
1(112)
1(113)
1(114)
1(115)
1(116)
1(117)
1(118)
1(119)
1(120)
1(121)
1(122)
1(123)
1(124)
1(125)
1(126)
1(127)
1(128)
1(129)
1(130)
1(131)
1(132)
1(133)
1(134)
1(135)
1(136)
1(137)
1(138)
1(139)
1(140)
1(141)
1(142)
1(143)
1(144)
1(145)
1(146)
1(147)
1(148)
1(149)
1(150)
1(151)
1(152)
1(153)
1(154)
1(155)
1(156)
1(157)
1(158)
1(159)
1(160)
1(161)
1(162)
1(163)
1(164)
1(165)
1(166)
1(167)
1(168)
1(169)
1(170)
1(171)
1(171)
1(172)
1(172)
1(173)
1(174)
1(175)
1(176)
1(177)
1(178)
1(179)
1(180)
1(181)
1(182)
1(183)
1(184)
1(185)
1(186)
1(187)
1(188)
1(189)
1(190)
1(191)
1(192)
1(193)
1(194)
1(195)
1(196)
1(197)
1(198)
1(199)
1(200)
1(201)
1(202)
1(203)
1(204)
1(205)
1(206)
1(207)
1(208)
1(209)
1(210)
1(211)
1(212)
1(213)
1(214)
1(215)
1(216)
1(217)
1(218)
1(219)
1(220)
1(221)
1(222)
1(223)
1(224)
1(225)
1(226)
1(227)
1(228)
1(229)
1(230)
1(231)
1(232)
1(233)
1(234)
1(235)
1(236)
1(237)
1(238)
1(239)
1(240)
1(241)
1(242)
1(243)
1(244)
1(245)
1(246)
1(247)
1(248)
1(249)
1(250)
1(251)
1(252)
1(253)
1(254)
1(255)
1(256)
1(257)
1(258)
1(259)
1(260)
1(261)
1(262)
1(263)
1(264)
1(265)
1(266)
1(267)
1(268)
1(269)
1(270)
1(271)
1(272)
1(273)
1(274)
1(275)
1(276)
1(277)
1(278)
1(279)
1(280)
1(281)
1(282)
1(283)
1(284)
1(285)
1(286)
1(287)
1(288)
1(289)
1(290)
)

// featurePointNormals

3
(
3(37 209 224)
3(69 237 249)
3(197 265 277)
)

// featurePointEdges

3
(
4(56 57 232 247)
4(88 158 260 272)
4(220 221 288 300)
)

// regionEdges

297
(
17
18
19
20
21
22
23
24
25
26
27
28
29
30
31
32
33
34
35
36
37
38
39
40
41
42
43
44
45
46
47
48
49
50
51
52
53
54
55
56
57
58
59
60
61
62
63
64
65
66
67
68
69
70
71
72
73
74
75
76
77
78
79
80
81
82
83
84
85
86
87
88
89
90
91
92
93
94
95
96
97
98
99
100
101
102
103
104
105
106
107
108
109
110
111
112
113
114
115
116
117
118
119
120
121
122
123
124
125
126
127
128
129
130
131
132
133
134
135
136
137
138
139
140
141
142
143
144
145
146
147
148
149
150
151
152
153
154
155
156
157
158
159
160
161
162
163
164
165
166
167
168
169
170
171
172
173
174
175
176
177
178
179
180
181
182
183
184
185
186
187
188
189
190
191
192
193
194
195
196
197
198
199
200
201
202
203
204
205
206
207
208
209
210
211
212
213
214
215
216
217
218
219
220
221
222
223
224
225
226
227
228
229
230
231
232
233
234
235
236
237
238
239
240
241
242
243
244
245
246
247
248
249
250
251
252
253
254
255
256
257
258
259
260
261
262
263
264
265
266
267
268
269
270
271
272
273
274
275
276
277
278
279
280
281
282
283
284
285
286
287
288
289
290
291
292
293
294
295
296
297
298
299
300
301
302
303
304
305
306
307
308
309
310
311
312
313
)



// ************************************************************************* //
