/*--------------------------------*- C++ -*----------------------------------*\
| =========                 |                                                 |
| \\      /  F ield         | OpenFOAM: The Open Source CFD Toolbox           |
|  \\    /   O peration     | Version:  4.1                                   |
|   \\  /    A nd           | Web:      www.OpenFOAM.org                      |
|    \\/     M anipulation  |                                                 |
\*---------------------------------------------------------------------------*/
FoamFile
{
    version     2.0;
    format      ascii;
    class       featureEdgeMesh;
    location    "constant/triSurface";
    object      Ypipe.eMesh;
}
// * * * * * * * * * * * * * * * * * * * * * * * * * * * * * * * * * * * * * //


// points:

312
(
(-3.88578e-18 -1.22465e-18 -0.005)
(0.05 -0.01 0.0025)
(0.05 0.05 -0.005)
(-3.88578e-18 0.00152403 0.00476207)
(-3.88578e-18 0.00193894 0.00460874)
(-3.88578e-18 0.00109719 0.00487813)
(-3.88578e-18 0.000661769 0.00495601)
(-3.88578e-18 0.000221167 0.00499511)
(-3.88578e-18 -0.000221167 0.00499511)
(-3.88578e-18 -0.000661769 0.00495601)
(-3.88578e-18 -0.00109719 0.00487813)
(-3.88578e-18 -0.00152403 0.00476207)
(-3.88578e-18 -0.00193894 0.00460874)
(-3.88578e-18 -0.00233867 0.00441935)
(-3.88578e-18 -0.0027201 0.00419536)
(-3.88578e-18 -0.00341628 0.0036509)
(-3.88578e-18 -0.00308024 0.00393854)
(-3.88578e-18 -0.00400572 0.00299236)
(-3.88578e-18 -0.00372558 0.00333468)
(-3.88578e-18 -0.00425451 0.00262663)
(-3.88578e-18 -0.00447 0.00224033)
(-3.88578e-18 -0.00465051 0.00183651)
(-3.88578e-18 -0.00479462 0.00141831)
(-3.88578e-18 -0.00490121 0.00098901)
(-3.88578e-18 -0.00496944 0.00055197)
(-3.88578e-18 -0.00499878 0.00011061)
(-3.88578e-18 -0.00498899 -0.000331615)
(-3.88578e-18 -0.00494016 -0.000771245)
(-3.88578e-18 -0.00485267 -0.00120484)
(-3.88578e-18 -0.00472719 -0.001629)
(-3.88578e-18 -0.00456472 -0.00204042)
(-3.88578e-18 -0.00436653 -0.00243586)
(-3.88578e-18 -0.00413416 -0.00281225)
(-3.88578e-18 -0.00386943 -0.00316662)
(-3.88578e-18 -0.00357443 -0.00349621)
(-3.88578e-18 -0.00325144 -0.00379844)
(-3.88578e-18 -0.00290301 -0.00407093)
(-3.88578e-18 -0.00253186 -0.00431157)
(-3.88578e-18 -0.0021409 -0.00451847)
(-3.88578e-18 -0.00173318 -0.00469)
(-3.88578e-18 -0.00131189 -0.00482482)
(-3.88578e-18 -0.000880343 -0.00492189)
(-3.88578e-18 -0.0004419 -0.00498043)
(-3.88578e-18 0.0004419 -0.00498043)
(-3.88578e-18 0.000880343 -0.00492189)
(-3.88578e-18 0.00131189 -0.00482482)
(-3.88578e-18 0.00173318 -0.00469)
(-3.88578e-18 0.0021409 -0.00451847)
(-3.88578e-18 0.00253186 -0.00431157)
(-3.88578e-18 0.00290301 -0.00407093)
(-3.88578e-18 0.00325144 -0.00379844)
(-3.88578e-18 0.00357443 -0.00349621)
(-3.88578e-18 0.00386943 -0.00316662)
(-3.88578e-18 0.00413416 -0.00281225)
(-3.88578e-18 0.00436653 -0.00243586)
(-3.88578e-18 0.00456472 -0.00204042)
(-3.88578e-18 0.00472719 -0.001629)
(-3.88578e-18 0.00485267 -0.00120484)
(-3.88578e-18 0.00494016 -0.000771245)
(-3.88578e-18 0.00498899 -0.000331615)
(-3.88578e-18 0.00499878 0.00011061)
(-3.88578e-18 0.00496944 0.00055197)
(-3.88578e-18 0.00490121 0.00098901)
(-3.88578e-18 0.00479462 0.00141831)
(-3.88578e-18 0.00465051 0.00183651)
(-3.88578e-18 0.00447 0.00224033)
(-3.88578e-18 0.00425451 0.00262663)
(-3.88578e-18 0.00400572 0.00299236)
(-3.88578e-18 0.00372558 0.00333468)
(-3.88578e-18 0.00341628 0.0036509)
(-3.88578e-18 0.00308024 0.00393854)
(-3.88578e-18 0.0027201 0.00419536)
(-3.88578e-18 0.00233867 0.00441935)
(0.050221 -0.01 0.00249022)
(0.0504402 -0.01 0.00246094)
(0.050656 -0.01 0.00241241)
(0.0508666 -0.01 0.002345)
(0.0510705 -0.01 0.00225923)
(0.0512659 -0.01 0.00215579)
(0.0514515 -0.01 0.00203547)
(0.0517872 -0.01 0.0017481)
(0.0516257 -0.01 0.00189922)
(0.0520671 -0.01 0.00140612)
(0.0519347 -0.01 0.00158331)
(0.0521833 -0.01 0.00121793)
(0.0522824 -0.01 0.00102021)
(0.0523636 -0.01 0.000814501)
(0.0524263 -0.01 0.000602419)
(0.0524701 -0.01 0.000385622)
(0.0524945 -0.01 0.000165807)
(0.0524994 -0.01 -5.53052e-05)
(0.0524847 -0.01 -0.000275985)
(0.0524506 -0.01 -0.000494505)
(0.0523973 -0.01 -0.000709154)
(0.0523252 -0.01 -0.000918254)
(0.052235 -0.01 -0.00112017)
(0.0521273 -0.01 -0.00131331)
(0.0520029 -0.01 -0.00149618)
(0.0518628 -0.01 -0.00166734)
(0.0517081 -0.01 -0.00182545)
(0.0515401 -0.01 -0.00196927)
(0.05136 -0.01 -0.00209768)
(0.0511693 -0.01 -0.00220967)
(0.0509695 -0.01 -0.00230437)
(0.050762 -0.01 -0.00238104)
(0.0505486 -0.01 -0.00243907)
(0.0503309 -0.01 -0.00247801)
(0.0501106 -0.01 -0.00249755)
(0.0498894 -0.01 -0.00249755)
(0.0496691 -0.01 -0.00247801)
(0.0494514 -0.01 -0.00243907)
(0.049238 -0.01 -0.00238104)
(0.0490305 -0.01 -0.00230437)
(0.0488307 -0.01 -0.00220967)
(0.04864 -0.01 -0.00209768)
(0.0484599 -0.01 -0.00196927)
(0.0482919 -0.01 -0.00182545)
(0.0481372 -0.01 -0.00166734)
(0.0479971 -0.01 -0.00149618)
(0.0478727 -0.01 -0.00131331)
(0.047765 -0.01 -0.00112017)
(0.0476748 -0.01 -0.000918254)
(0.0476027 -0.01 -0.000709154)
(0.0475494 -0.01 -0.000494505)
(0.0475153 -0.01 -0.000275985)
(0.0475006 -0.01 -5.53052e-05)
(0.0475055 -0.01 0.000165807)
(0.0475299 -0.01 0.000385622)
(0.0475737 -0.01 0.000602419)
(0.0476364 -0.01 0.000814501)
(0.0477176 -0.01 0.00102021)
(0.0478167 -0.01 0.00121793)
(0.0479329 -0.01 0.00140612)
(0.0480653 -0.01 0.00158331)
(0.0482128 -0.01 0.0017481)
(0.0483743 -0.01 0.00189922)
(0.0485485 -0.01 0.00203547)
(0.0487341 -0.01 0.00215579)
(0.0489295 -0.01 0.00225923)
(0.0491334 -0.01 0.002345)
(0.049344 -0.01 0.00241241)
(0.0495598 -0.01 0.00246094)
(0.049779 -0.01 0.00249022)
(0.0464256 0.05 -0.00349621)
(0.0461306 0.05 -0.00316662)
(0.0458658 0.05 -0.00281225)
(0.0456335 0.05 -0.00243586)
(0.0454353 0.05 -0.00204042)
(0.0452728 0.05 -0.001629)
(0.0451473 0.05 -0.00120484)
(0.0450598 0.05 -0.000771245)
(0.045011 0.05 -0.000331615)
(0.0450012 0.05 0.00011061)
(0.0450306 0.05 0.00055197)
(0.0450988 0.05 0.00098901)
(0.0452054 0.05 0.00141831)
(0.0453495 0.05 0.00183651)
(0.04553 0.05 0.00224033)
(0.0457455 0.05 0.00262663)
(0.0459943 0.05 0.00299236)
(0.0462744 0.05 0.00333468)
(0.0465837 0.05 0.0036509)
(0.0469198 0.05 0.00393854)
(0.0472799 0.05 0.00419536)
(0.0476613 0.05 0.00441935)
(0.0480611 0.05 0.00460874)
(0.048476 0.05 0.00476207)
(0.0489028 0.05 0.00487813)
(0.0493382 0.05 0.00495601)
(0.0497788 0.05 0.00499511)
(0.0502212 0.05 0.00499511)
(0.0506618 0.05 0.00495601)
(0.0510972 0.05 0.00487813)
(0.051524 0.05 0.00476207)
(0.0519389 0.05 0.00460874)
(0.0523387 0.05 0.00441935)
(0.0527201 0.05 0.00419536)
(0.0530802 0.05 0.00393854)
(0.0534163 0.05 0.0036509)
(0.0537256 0.05 0.00333468)
(0.0540057 0.05 0.00299236)
(0.0542545 0.05 0.00262663)
(0.05447 0.05 0.00224033)
(0.0546505 0.05 0.00183651)
(0.0547946 0.05 0.00141831)
(0.0549012 0.05 0.00098901)
(0.0549694 0.05 0.00055197)
(0.0549988 0.05 0.00011061)
(0.054989 0.05 -0.000331615)
(0.0549402 0.05 -0.000771245)
(0.0548527 0.05 -0.00120484)
(0.0547272 0.05 -0.001629)
(0.0545647 0.05 -0.00204042)
(0.0543665 0.05 -0.00243586)
(0.0541342 0.05 -0.00281225)
(0.0538694 0.05 -0.00316662)
(0.0535744 0.05 -0.00349621)
(0.0532514 0.05 -0.00379844)
(0.052903 0.05 -0.00407093)
(0.0525319 0.05 -0.00431157)
(0.0521409 0.05 -0.00451847)
(0.0517332 0.05 -0.00469)
(0.0513119 0.05 -0.00482482)
(0.0508803 0.05 -0.00492189)
(0.0504419 0.05 -0.00498043)
(0.0495581 0.05 -0.00498043)
(0.0491197 0.05 -0.00492189)
(0.0486881 0.05 -0.00482482)
(0.0482668 0.05 -0.00469)
(0.0478591 0.05 -0.00451847)
(0.0474681 0.05 -0.00431157)
(0.047097 0.05 -0.00407093)
(0.0467486 0.05 -0.00379844)
(-3.88578e-18 -0.00413844 0.00280594)
(-3.88578e-18 -0.00464488 0.00185069)
(-3.88578e-18 -0.00493413 0.00080891)
(-3.88578e-18 0.00107485 -0.0048831)
(-3.88578e-18 -0.00499267 -0.000270694)
(-3.88578e-18 0.00209945 -0.00453788)
(-3.88578e-18 -0.00481775 -0.00133764)
(-3.88578e-18 0.00302587 -0.00398046)
(-3.88578e-18 -0.00441756 -0.00234204)
(-3.88578e-18 0.00381081 -0.00323693)
(-3.88578e-18 -0.00381081 -0.00323693)
(-3.88578e-18 0.00441756 -0.00234204)
(-3.88578e-18 -0.00302587 -0.00398046)
(-3.88578e-18 0.00481775 -0.00133764)
(-3.88578e-18 -0.00209945 -0.00453788)
(-3.88578e-18 0.00499267 -0.000270694)
(-3.88578e-18 -0.00107485 -0.0048831)
(-3.88578e-18 0.00493413 0.00080891)
(-3.88578e-18 0.00464488 0.00185069)
(-3.88578e-18 0.00413844 0.00280594)
(-3.88578e-18 0.0034385 0.00362998)
(-3.88578e-18 0.00257777 0.00428429)
(-3.88578e-18 0.00159651 0.00473827)
(-3.88578e-18 0.000540595 0.00497069)
(-3.88578e-18 -0.000540595 0.00497069)
(-3.88578e-18 -0.00159651 0.00473827)
(-3.88578e-18 -0.00257777 0.00428429)
(-3.88578e-18 -0.0034385 0.00362998)
(0.0476625 -0.01 -0.000886512)
(0.0475182 -0.01 -0.000301342)
(0.0505983 -0.01 0.00242736)
(0.0475182 -0.01 0.000301342)
(0.0511618 -0.01 0.00221364)
(0.0476625 -0.01 0.000886512)
(0.0516578 -0.01 0.00187128)
(0.0479425 -0.01 0.00142016)
(0.0520575 -0.01 0.00142016)
(0.0483422 -0.01 0.00187128)
(0.0488382 -0.01 0.00221364)
(0.0523375 -0.01 0.000886512)
(0.0494017 -0.01 0.00242736)
(0.0524818 -0.01 0.000301342)
(0.0524818 -0.01 -0.000301342)
(0.0523375 -0.01 -0.000886512)
(0.0520575 -0.01 -0.00142016)
(0.0516578 -0.01 -0.00187128)
(0.0511618 -0.01 -0.00221364)
(0.0505983 -0.01 -0.00242736)
(0.05 -0.01 -0.0025)
(0.0494017 -0.01 -0.00242736)
(0.0488382 -0.01 -0.00221364)
(0.0483422 -0.01 -0.00187128)
(0.0479425 -0.01 -0.00142016)
(0.0546449 0.05 0.00185069)
(0.0541384 0.05 0.00280594)
(0.0549341 0.05 0.00080891)
(0.0549927 0.05 -0.000270694)
(0.0489252 0.05 -0.0048831)
(0.0548177 0.05 -0.00133764)
(0.0479005 0.05 -0.00453788)
(0.0544176 0.05 -0.00234204)
(0.0469741 0.05 -0.00398046)
(0.0538108 0.05 -0.00323693)
(0.0461892 0.05 -0.00323693)
(0.0530259 0.05 -0.00398046)
(0.0455824 0.05 -0.00234204)
(0.0520995 0.05 -0.00453788)
(0.0451823 0.05 -0.00133764)
(0.0510748 0.05 -0.0048831)
(0.0450073 0.05 -0.000270694)
(0.0450659 0.05 0.00080891)
(0.0453551 0.05 0.00185069)
(0.0458616 0.05 0.00280594)
(0.0465615 0.05 0.00362998)
(0.0474222 0.05 0.00428429)
(0.0484035 0.05 0.00473827)
(0.0494594 0.05 0.00497069)
(0.0505406 0.05 0.00497069)
(0.0515965 0.05 0.00473827)
(0.0525778 0.05 0.00428429)
(0.0534385 0.05 0.00362998)
(0.047548 0.00222702 -0.000487391)
(0.0475056 0.00215588 -0.000167634)
(0.0475031 0.00215156 0.000123504)
(0.0478149 0.00267474 -0.00121458)
(0.0476419 0.00238476 -0.000830314)
(0.0480999 0.00315065 -0.0016247)
(0.0485922 0.00396291 -0.00206597)
(0.0492742 0.00505339 -0.00239234)
(0.0475296 0.00219622 0.000383784)
(0.0475829 0.00228576 0.00063862)
(0.0476618 0.00241816 0.000884805)
(0.0478041 0.0026567 0.001195)
(0.0480103 0.00300143 0.00151369)
(0.0500096 0.00615904 -0.00249998)
(0.0483525 0.00356931 0.00188037)
(0.0488171 0.00432781 0.00220244)
(0.0493785 0.00521517 0.00242151)
(0.05 0.00614522 0.0025)
)


// edges:

314
(
(294 295)
(295 296)
(297 298)
(298 294)
(299 297)
(300 299)
(301 300)
(296 302)
(302 303)
(303 304)
(304 305)
(305 306)
(307 301)
(306 308)
(308 309)
(309 310)
(310 311)
(3 4)
(5 3)
(6 5)
(7 6)
(8 7)
(9 8)
(10 9)
(11 10)
(12 11)
(13 12)
(14 13)
(15 16)
(16 14)
(17 18)
(18 15)
(19 17)
(20 19)
(21 20)
(22 21)
(23 22)
(24 23)
(25 24)
(26 25)
(27 26)
(28 27)
(29 28)
(30 29)
(31 30)
(32 31)
(33 32)
(34 33)
(35 34)
(36 35)
(37 36)
(38 37)
(39 38)
(40 39)
(41 40)
(42 41)
(0 42)
(43 0)
(44 43)
(45 44)
(46 45)
(47 46)
(48 47)
(49 48)
(50 49)
(51 50)
(52 51)
(53 52)
(54 53)
(55 54)
(56 55)
(57 56)
(58 57)
(59 58)
(60 59)
(61 60)
(62 61)
(63 62)
(64 63)
(65 64)
(66 65)
(67 66)
(68 67)
(69 68)
(70 69)
(71 70)
(72 71)
(4 72)
(73 1)
(74 73)
(75 74)
(76 75)
(77 76)
(78 77)
(79 78)
(80 81)
(81 79)
(82 83)
(83 80)
(84 82)
(85 84)
(86 85)
(87 86)
(88 87)
(89 88)
(90 89)
(91 90)
(92 91)
(93 92)
(94 93)
(95 94)
(96 95)
(97 96)
(98 97)
(99 98)
(100 99)
(101 100)
(102 101)
(103 102)
(104 103)
(105 104)
(106 105)
(107 106)
(108 107)
(109 108)
(110 109)
(111 110)
(112 111)
(113 112)
(114 113)
(115 114)
(116 115)
(117 116)
(118 117)
(119 118)
(120 119)
(121 120)
(122 121)
(123 122)
(124 123)
(125 124)
(126 125)
(127 126)
(128 127)
(129 128)
(130 129)
(131 130)
(132 131)
(133 132)
(134 133)
(135 134)
(136 135)
(137 136)
(138 137)
(139 138)
(140 139)
(141 140)
(142 141)
(1 142)
(143 144)
(144 145)
(145 146)
(146 147)
(147 148)
(148 149)
(149 150)
(150 151)
(151 152)
(152 153)
(153 154)
(154 155)
(155 156)
(156 157)
(157 158)
(158 159)
(159 160)
(160 161)
(161 162)
(162 163)
(163 164)
(164 165)
(165 166)
(166 167)
(167 168)
(168 169)
(169 170)
(170 171)
(171 172)
(172 173)
(173 174)
(174 175)
(175 176)
(176 177)
(177 178)
(178 179)
(179 180)
(180 181)
(181 182)
(182 183)
(183 184)
(184 185)
(185 186)
(186 187)
(187 188)
(188 189)
(189 190)
(190 191)
(191 192)
(192 193)
(193 194)
(194 195)
(195 196)
(196 197)
(197 198)
(198 199)
(199 200)
(200 201)
(201 202)
(202 203)
(203 204)
(204 2)
(2 205)
(205 206)
(206 207)
(207 208)
(208 209)
(209 210)
(210 211)
(211 212)
(212 143)
(213 214)
(214 215)
(0 216)
(215 217)
(216 218)
(217 219)
(218 220)
(219 221)
(220 222)
(221 223)
(222 224)
(223 225)
(224 226)
(225 227)
(226 228)
(227 229)
(228 230)
(229 0)
(230 231)
(231 232)
(232 233)
(233 234)
(234 235)
(235 236)
(236 237)
(237 238)
(238 239)
(239 240)
(240 213)
(241 242)
(1 243)
(242 244)
(243 245)
(244 246)
(245 247)
(246 248)
(247 249)
(248 250)
(250 251)
(249 252)
(251 253)
(252 254)
(253 1)
(254 255)
(255 256)
(256 257)
(257 258)
(258 259)
(259 260)
(260 261)
(261 262)
(262 263)
(263 264)
(264 265)
(265 241)
(266 267)
(268 266)
(269 268)
(270 2)
(271 269)
(272 270)
(273 271)
(274 272)
(275 273)
(276 274)
(277 275)
(278 276)
(279 277)
(280 278)
(281 279)
(2 281)
(282 280)
(283 282)
(284 283)
(285 284)
(286 285)
(287 286)
(288 287)
(289 288)
(290 289)
(291 290)
(292 291)
(293 292)
(267 293)
)

// * * * * * * * * * * * * * * * * * * * * * * * * * * * * * * * * * * * * * //


// ************************************************************************* //
