/*--------------------------------*- C++ -*----------------------------------*\
| =========                 |                                                 |
| \\      /  F ield         | OpenFOAM: The Open Source CFD Toolbox           |
|  \\    /   O peration     | Version:  4.1                                   |
|   \\  /    A nd           | Web:      www.OpenFOAM.org                      |
|    \\/     M anipulation  |                                                 |
\*---------------------------------------------------------------------------*/
FoamFile
{
    version     2.0;
    format      ascii;
    class       extendedFeatureEdgeMesh;
    location    "constant/extendedFeatureEdgeMesh";
    object      cylinder.extendedFeatureEdgeMesh;
}
// * * * * * * * * * * * * * * * * * * * * * * * * * * * * * * * * * * * * * //

// points

100
(
(37.6 1100 297.634)
(-7.34788e-14 1100 300)
(-7.34788e-14 -100 300)
(37.6 -100 297.634)
(74.607 1100 290.575)
(74.607 -100 290.575)
(110.437 1100 278.933)
(110.437 -100 278.933)
(144.526 1100 262.892)
(144.526 -100 262.892)
(176.336 1100 242.705)
(176.336 -100 242.705)
(205.364 1100 218.691)
(205.364 -100 218.691)
(231.154 1100 191.227)
(231.154 -100 191.227)
(253.298 1100 160.748)
(253.298 -100 160.748)
(271.448 1100 127.734)
(271.448 -100 127.734)
(285.317 1100 92.7051)
(285.317 -100 92.7051)
(294.686 1100 56.2144)
(294.686 -100 56.2144)
(299.408 1100 18.8372)
(299.408 -100 18.8372)
(299.408 1100 -18.8372)
(299.408 -100 -18.8372)
(294.686 1100 -56.2144)
(294.686 -100 -56.2144)
(285.317 -100 -92.7051)
(285.317 1100 -92.7051)
(271.448 -100 -127.734)
(271.448 1100 -127.734)
(253.298 -100 -160.748)
(253.298 1100 -160.748)
(231.154 -100 -191.227)
(231.154 1100 -191.227)
(205.364 -100 -218.691)
(205.364 1100 -218.691)
(176.336 -100 -242.705)
(176.336 1100 -242.705)
(144.526 -100 -262.892)
(144.526 1100 -262.892)
(110.437 -100 -278.933)
(110.437 1100 -278.933)
(74.607 -100 -290.575)
(74.607 1100 -290.575)
(37.6 -100 -297.634)
(37.6 1100 -297.634)
(-3.62941e-13 1100 -300)
(-3.62941e-13 -100 -300)
(-37.6 1100 -297.634)
(-37.6 -100 -297.634)
(-74.607 1100 -290.575)
(-74.607 -100 -290.575)
(-110.437 1100 -278.933)
(-110.437 -100 -278.933)
(-144.526 1100 -262.892)
(-144.526 -100 -262.892)
(-176.336 1100 -242.705)
(-176.336 -100 -242.705)
(-205.364 1100 -218.691)
(-205.364 -100 -218.691)
(-231.154 1100 -191.227)
(-231.154 -100 -191.227)
(-253.298 1100 -160.748)
(-253.298 -100 -160.748)
(-271.448 1100 -127.734)
(-271.448 -100 -127.734)
(-285.317 1100 -92.7051)
(-285.317 -100 -92.7051)
(-294.686 1100 -56.2144)
(-294.686 -100 -56.2144)
(-299.408 1100 -18.8372)
(-299.408 -100 -18.8372)
(-299.408 1100 18.8372)
(-299.408 -100 18.8372)
(-294.686 1100 56.2144)
(-294.686 -100 56.2144)
(-285.317 1100 92.7051)
(-285.317 -100 92.7051)
(-271.448 1100 127.734)
(-271.448 -100 127.734)
(-253.298 1100 160.748)
(-253.298 -100 160.748)
(-231.154 1100 191.227)
(-231.154 -100 191.227)
(-205.364 1100 218.691)
(-205.364 -100 218.691)
(-176.336 1100 242.705)
(-176.336 -100 242.705)
(-144.526 1100 262.892)
(-144.526 -100 262.892)
(-110.437 1100 278.933)
(-110.437 -100 278.933)
(-74.607 1100 290.575)
(-74.607 -100 290.575)
(-37.6 1100 297.634)
(-37.6 -100 297.634)
)

// edges

100
(
(0 1)
(2 3)
(4 0)
(3 5)
(6 4)
(5 7)
(8 6)
(7 9)
(10 8)
(9 11)
(12 10)
(11 13)
(14 12)
(13 15)
(16 14)
(15 17)
(18 16)
(17 19)
(20 18)
(19 21)
(22 20)
(21 23)
(24 22)
(23 25)
(26 24)
(25 27)
(28 26)
(27 29)
(29 30)
(31 28)
(30 32)
(33 31)
(32 34)
(35 33)
(34 36)
(37 35)
(36 38)
(39 37)
(38 40)
(41 39)
(40 42)
(43 41)
(42 44)
(45 43)
(44 46)
(47 45)
(46 48)
(49 47)
(50 49)
(48 51)
(52 50)
(51 53)
(54 52)
(53 55)
(56 54)
(55 57)
(58 56)
(57 59)
(60 58)
(59 61)
(62 60)
(61 63)
(64 62)
(63 65)
(66 64)
(65 67)
(68 66)
(67 69)
(70 68)
(69 71)
(72 70)
(71 73)
(74 72)
(73 75)
(76 74)
(75 77)
(78 76)
(77 79)
(80 78)
(79 81)
(82 80)
(81 83)
(84 82)
(83 85)
(86 84)
(85 87)
(88 86)
(87 89)
(90 88)
(89 91)
(92 90)
(91 93)
(94 92)
(93 95)
(96 94)
(95 97)
(98 96)
(97 99)
(99 2)
(1 98)
)

// concaveStart mixedStart nonFeatureStart
0 0 0
// internalStart flatStart openStart multipleStart
100 100 100 100
// normals

166
(
(0.0627908 0 0.998027)
(0 1 0)
(0.0627908 0 0.998027)
(0 -1 0)
(0.187383 0 0.982287)
(0 1 0)
(0.187383 0 0.982287)
(0 -1 0)
(0.309017 0 0.951057)
(0.309017 0 0.951057)
(0.425779 0 0.904827)
(0 1 0)
(0.425779 0 0.904827)
(-0 -1 -0)
(0.535826 0 0.844328)
(0 1 0)
(0.535826 0 0.844328)
(0 -1 0)
(0.637424 0 0.770513)
(0.637424 0 0.770513)
(0.728968 0 0.684548)
(0 1 0)
(0.728968 0 0.684548)
(-0 -1 -0)
(0.809018 0 0.587785)
(0 1 0)
(0.809018 0 0.587785)
(0 -1 0)
(0.876307 0 0.481753)
(0 1 0)
(0.876307 0 0.481753)
(0 -1 0)
(0.929776 0 0.368126)
(0.929776 0 0.368126)
(0.968583 0 0.248689)
(0 1 0)
(0.968583 0 0.248689)
(0 -1 0)
(0.992115 0 0.125332)
(0.992115 0 0.125332)
(1 0 -0)
(0 1 0)
(1 0 0)
(0 -1 0)
(0.992115 0 -0.125332)
(0 1 0)
(0.992115 0 -0.125332)
(0 -1 0)
(0.968583 0 -0.248689)
(0 -1 0)
(0.968583 0 -0.248689)
(0 1 0)
(0.929776 0 -0.368126)
(0.929776 0 -0.368126)
(0.876307 0 -0.481753)
(0 -1 0)
(0.876307 0 -0.481753)
(0 1 0)
(0.809018 0 -0.587785)
(0.809018 0 -0.587785)
(0.728968 0 -0.684548)
(0 -1 0)
(0.728968 0 -0.684548)
(0 1 0)
(0.637424 0 -0.770513)
(0 -1 0)
(0.637424 0 -0.770513)
(0 1 0)
(0.535826 0 -0.844328)
(0.535826 0 -0.844328)
(0.425779 0 -0.904827)
(0 -1 0)
(0.425779 0 -0.904827)
(0 1 0)
(0.309017 0 -0.951057)
(0.309017 0 -0.951057)
(0.187383 0 -0.982287)
(-0 -1 0)
(0.187383 0 -0.982287)
(0 1 0)
(0.0627908 0 -0.998027)
(0 1 0)
(0.0627908 0 -0.998027)
(-0 -1 0)
(-0.0627908 0 -0.998027)
(0 1 0)
(-0.0627908 -0 -0.998027)
(0 -1 0)
(-0.187383 0 -0.982287)
(-0.187383 -0 -0.982287)
(-0.309017 0 -0.951057)
(0 1 0)
(-0.309017 -0 -0.951057)
(0 -1 0)
(-0.425779 0 -0.904827)
(-0.425779 -0 -0.904827)
(-0.535826 0 -0.844328)
(0 1 0)
(-0.535826 -0 -0.844328)
(0 -1 0)
(-0.637424 0 -0.770513)
(-0.637424 -0 -0.770513)
(-0.728968 0 -0.684548)
(0 1 0)
(-0.728968 -0 -0.684548)
(0 -1 0)
(-0.809018 0 -0.587785)
(-0.809018 -0 -0.587785)
(-0.876307 0 -0.481753)
(0 1 0)
(-0.876307 -0 -0.481753)
(0 -1 0)
(-0.929776 0 -0.368126)
(0 1 0)
(-0.929776 -0 -0.368126)
(0 -1 0)
(-0.968583 0 -0.248689)
(-0.968583 -0 -0.248689)
(-0.992115 0 -0.125332)
(0 1 0)
(-0.992115 -0 -0.125332)
(0 -1 -0)
(-1 0 -0)
(0 1 0)
(-1 -0 0)
(0 -1 0)
(-0.992115 0 0.125332)
(-0.992115 0 0.125332)
(-0.968583 0 0.248689)
(0 1 0)
(-0.968583 0 0.248689)
(0 -1 0)
(-0.929776 0 0.368126)
(0 1 0)
(-0.929776 0 0.368126)
(0 -1 0)
(-0.876307 0 0.481753)
(-0.876307 0 0.481753)
(-0.809018 0 0.587785)
(0 1 0)
(-0.809018 0 0.587785)
(0 -1 0)
(-0.728968 0 0.684548)
(0 1 0)
(-0.728968 0 0.684548)
(0 -1 0)
(-0.637424 0 0.770513)
(0 1 0)
(-0.637424 0 0.770513)
(0 -1 0)
(-0.535826 0 0.844328)
(0 1 0)
(-0.535826 0 0.844328)
(0 -1 0)
(-0.425779 0 0.904827)
(0 1 0)
(-0.425779 0 0.904827)
(0 -1 0)
(-0.309017 0 0.951057)
(-0.309017 0 0.951057)
(-0.187383 0 0.982287)
(0 1 0)
(-0.187383 0 0.982287)
(0 -1 0)
(-0.0627908 0 0.998027)
(-0.0627908 0 0.998027)
)

// normal volume types

166
(
0
0
0
0
0
0
0
0
0
0
0
0
0
0
0
0
0
0
0
0
0
0
0
0
0
0
0
0
0
0
0
0
0
0
0
0
0
0
0
0
0
0
0
0
0
0
0
0
0
0
0
0
0
0
0
0
0
0
0
0
0
0
0
0
0
0
0
0
0
0
0
0
0
0
0
0
0
0
0
0
0
0
0
0
0
0
0
0
0
0
0
0
0
0
0
0
0
0
0
0
0
0
0
0
0
0
0
0
0
0
0
0
0
0
0
0
0
0
0
0
0
0
0
0
0
0
0
0
0
0
0
0
0
0
0
0
0
0
0
0
0
0
0
0
0
0
0
0
0
0
0
0
0
0
0
0
0
0
0
0
0
0
0
0
0
0
)

// normalDirections

100
(
2(1 -1)
2(1 -1)
2(1 -1)
2(1 -1)
2(1 -1)
2(1 -1)
2(1 -1)
2(1 -1)
2(1 -1)
2(1 -1)
2(1 -1)
2(1 -1)
2(1 -1)
2(1 -1)
2(1 -1)
2(1 -1)
2(1 -1)
2(1 -1)
2(1 -1)
2(1 -1)
2(1 -1)
2(1 -1)
2(1 -1)
2(1 -1)
2(1 -1)
2(1 -1)
2(1 -1)
2(1 -1)
2(1 -1)
2(1 -1)
2(1 -1)
2(1 -1)
2(1 -1)
2(1 -1)
2(1 -1)
2(1 -1)
2(1 -1)
2(1 -1)
2(1 -1)
2(1 -1)
2(1 -1)
2(1 -1)
2(1 -1)
2(1 -1)
2(1 -1)
2(1 -1)
2(1 -1)
2(1 -1)
2(1 -1)
2(1 -1)
2(1 -1)
2(1 -1)
2(1 -1)
2(1 -1)
2(1 -1)
2(1 -1)
2(1 -1)
2(1 -1)
2(1 -1)
2(1 -1)
2(1 -1)
2(1 -1)
2(1 -1)
2(1 -1)
2(1 -1)
2(1 -1)
2(1 -1)
2(1 -1)
2(1 -1)
2(1 -1)
2(1 -1)
2(1 -1)
2(1 -1)
2(1 -1)
2(1 -1)
2(1 -1)
2(1 -1)
2(1 -1)
2(1 -1)
2(1 -1)
2(1 -1)
2(1 -1)
2(1 -1)
2(1 -1)
2(1 -1)
2(1 -1)
2(1 -1)
2(1 -1)
2(1 -1)
2(1 -1)
2(1 -1)
2(1 -1)
2(1 -1)
2(1 -1)
2(1 -1)
2(1 -1)
2(1 -1)
2(1 -1)
2(1 -1)
2(1 -1)
)

// edgeNormals

100
(
2(0 1)
2(2 3)
2(4 5)
2(6 7)
2(8 5)
2(9 7)
2(10 11)
2(12 13)
2(14 15)
2(16 17)
2(18 15)
2(19 17)
2(20 21)
2(22 23)
2(24 25)
2(26 27)
2(28 29)
2(30 31)
2(32 29)
2(33 31)
2(34 35)
2(36 37)
2(38 35)
2(39 37)
2(40 41)
2(42 43)
2(44 45)
2(46 47)
2(48 49)
2(50 51)
2(52 49)
2(53 51)
2(54 55)
2(56 57)
2(58 55)
2(59 57)
2(60 61)
2(62 63)
2(64 65)
2(66 67)
2(68 65)
2(69 67)
2(70 71)
2(72 73)
2(74 71)
2(75 73)
2(76 77)
2(78 79)
2(80 81)
2(82 83)
2(84 85)
2(86 87)
2(88 85)
2(89 87)
2(90 91)
2(92 93)
2(94 91)
2(95 93)
2(96 97)
2(98 99)
2(100 97)
2(101 99)
2(102 103)
2(104 105)
2(106 103)
2(107 105)
2(108 109)
2(110 111)
2(112 113)
2(114 115)
2(116 113)
2(117 115)
2(118 119)
2(120 121)
2(122 123)
2(124 125)
2(126 123)
2(127 125)
2(128 129)
2(130 131)
2(132 133)
2(134 135)
2(136 133)
2(137 135)
2(138 139)
2(140 141)
2(142 143)
2(144 145)
2(146 147)
2(148 149)
2(150 151)
2(152 153)
2(154 155)
2(156 157)
2(158 155)
2(159 157)
2(160 161)
2(162 163)
2(164 163)
2(165 161)
)

// featurePointNormals
0()
// featurePointEdges
0()
// regionEdges
0()


// ************************************************************************* //
