/*--------------------------------*- C++ -*----------------------------------*\
| =========                 |                                                 |
| \\      /  F ield         | OpenFOAM: The Open Source CFD Toolbox           |
|  \\    /   O peration     | Version:  4.1                                   |
|   \\  /    A nd           | Web:      www.OpenFOAM.org                      |
|    \\/     M anipulation  |                                                 |
\*---------------------------------------------------------------------------*/
FoamFile
{
    version     2.0;
    format      ascii;
    class       featureEdgeMesh;
    location    "constant/triSurface";
    object      cylinder.eMesh;
}
// * * * * * * * * * * * * * * * * * * * * * * * * * * * * * * * * * * * * * //


// points:

100
(
(37.6 1100 297.634)
(-7.34788e-14 1100 300)
(-7.34788e-14 -100 300)
(37.6 -100 297.634)
(74.607 1100 290.575)
(74.607 -100 290.575)
(110.437 1100 278.933)
(110.437 -100 278.933)
(144.526 1100 262.892)
(144.526 -100 262.892)
(176.336 1100 242.705)
(176.336 -100 242.705)
(205.364 1100 218.691)
(205.364 -100 218.691)
(231.154 1100 191.227)
(231.154 -100 191.227)
(253.298 1100 160.748)
(253.298 -100 160.748)
(271.448 1100 127.734)
(271.448 -100 127.734)
(285.317 1100 92.7051)
(285.317 -100 92.7051)
(294.686 1100 56.2144)
(294.686 -100 56.2144)
(299.408 1100 18.8372)
(299.408 -100 18.8372)
(299.408 1100 -18.8372)
(299.408 -100 -18.8372)
(294.686 1100 -56.2144)
(294.686 -100 -56.2144)
(285.317 -100 -92.7051)
(285.317 1100 -92.7051)
(271.448 -100 -127.734)
(271.448 1100 -127.734)
(253.298 -100 -160.748)
(253.298 1100 -160.748)
(231.154 -100 -191.227)
(231.154 1100 -191.227)
(205.364 -100 -218.691)
(205.364 1100 -218.691)
(176.336 -100 -242.705)
(176.336 1100 -242.705)
(144.526 -100 -262.892)
(144.526 1100 -262.892)
(110.437 -100 -278.933)
(110.437 1100 -278.933)
(74.607 -100 -290.575)
(74.607 1100 -290.575)
(37.6 -100 -297.634)
(37.6 1100 -297.634)
(-3.62941e-13 1100 -300)
(-3.62941e-13 -100 -300)
(-37.6 1100 -297.634)
(-37.6 -100 -297.634)
(-74.607 1100 -290.575)
(-74.607 -100 -290.575)
(-110.437 1100 -278.933)
(-110.437 -100 -278.933)
(-144.526 1100 -262.892)
(-144.526 -100 -262.892)
(-176.336 1100 -242.705)
(-176.336 -100 -242.705)
(-205.364 1100 -218.691)
(-205.364 -100 -218.691)
(-231.154 1100 -191.227)
(-231.154 -100 -191.227)
(-253.298 1100 -160.748)
(-253.298 -100 -160.748)
(-271.448 1100 -127.734)
(-271.448 -100 -127.734)
(-285.317 1100 -92.7051)
(-285.317 -100 -92.7051)
(-294.686 1100 -56.2144)
(-294.686 -100 -56.2144)
(-299.408 1100 -18.8372)
(-299.408 -100 -18.8372)
(-299.408 1100 18.8372)
(-299.408 -100 18.8372)
(-294.686 1100 56.2144)
(-294.686 -100 56.2144)
(-285.317 1100 92.7051)
(-285.317 -100 92.7051)
(-271.448 1100 127.734)
(-271.448 -100 127.734)
(-253.298 1100 160.748)
(-253.298 -100 160.748)
(-231.154 1100 191.227)
(-231.154 -100 191.227)
(-205.364 1100 218.691)
(-205.364 -100 218.691)
(-176.336 1100 242.705)
(-176.336 -100 242.705)
(-144.526 1100 262.892)
(-144.526 -100 262.892)
(-110.437 1100 278.933)
(-110.437 -100 278.933)
(-74.607 1100 290.575)
(-74.607 -100 290.575)
(-37.6 1100 297.634)
(-37.6 -100 297.634)
)


// edges:

100
(
(0 1)
(2 3)
(4 0)
(3 5)
(6 4)
(5 7)
(8 6)
(7 9)
(10 8)
(9 11)
(12 10)
(11 13)
(14 12)
(13 15)
(16 14)
(15 17)
(18 16)
(17 19)
(20 18)
(19 21)
(22 20)
(21 23)
(24 22)
(23 25)
(26 24)
(25 27)
(28 26)
(27 29)
(29 30)
(31 28)
(30 32)
(33 31)
(32 34)
(35 33)
(34 36)
(37 35)
(36 38)
(39 37)
(38 40)
(41 39)
(40 42)
(43 41)
(42 44)
(45 43)
(44 46)
(47 45)
(46 48)
(49 47)
(50 49)
(48 51)
(52 50)
(51 53)
(54 52)
(53 55)
(56 54)
(55 57)
(58 56)
(57 59)
(60 58)
(59 61)
(62 60)
(61 63)
(64 62)
(63 65)
(66 64)
(65 67)
(68 66)
(67 69)
(70 68)
(69 71)
(72 70)
(71 73)
(74 72)
(73 75)
(76 74)
(75 77)
(78 76)
(77 79)
(80 78)
(79 81)
(82 80)
(81 83)
(84 82)
(83 85)
(86 84)
(85 87)
(88 86)
(87 89)
(90 88)
(89 91)
(92 90)
(91 93)
(94 92)
(93 95)
(96 94)
(95 97)
(98 96)
(97 99)
(99 2)
(1 98)
)

// * * * * * * * * * * * * * * * * * * * * * * * * * * * * * * * * * * * * * //


// ************************************************************************* //
